&HEAD CHID='Tor Faraj', TITLE='Tor Faraj Rockshelter' /
&MESH IJK=20,60,40, XB= 0.0, 10.0, 0.0, 30.0, 0.0, 20.0 /
&TIME T_END=3600. /

&WIND SPEED=5., DIRECTION=50, Z_0=0.15, L=500. /

Construction information

&MISC SURF_DEFAULT='CONCRETE WALL', TMPA=20.0 /

&MATL ID            = 'CONCRETE'
      SPECIFIC_HEAT = 0.75
      CONDUCTIVITY  = 1.6
      DENSITY       = 2400. /
                    
&SURF ID            = 'CONCRETE WALL'
      COLOR         = 'WHITE'
      MATL_ID       = 'CONCRETE'
      THICKNESS     = 0.5 /

&MATL ID            = 'ROCK'
      SPECIFIC_HEAT = 0.75
      CONDUCTIVITY  = 3.0
      DENSITY       = 2400. /
                    
wheat - 245, 222, 179
&SURF ID            = 'ROCK WALL'
      RGB           = 245,222,179
      MATL_ID       = 'ROCK'
      THICKNESS     = 0.5 /

&VENT XB=0.0,10.0,0.0,30.0,20.0,20.0, SURF_ID='OPEN' /
&VENT XB=0.0,0.0,0.0,30.0,0.0,20.0, SURF_ID='OPEN' /
&VENT XB=10.0,10.0,0.0,30.0,0.0,20.0, SURF_ID='OPEN' /
&VENT XB=0.0,10.0,30.0,30.0,0.0,20.0, SURF_ID='OPEN' /

The back side of the rockshelter - 1m with ceiling of 10m
&OBST XB= 8.5, 9.0, 0, 30.0, 0.0, 10.0, SURF_ID='ROCK WALL' /
&OBST XB= 8.0, 9.0, 0,  3.0, 0.0, 10.0, SURF_ID='ROCK WALL' /
&OBST XB= 8.0, 9.0, 27.0, 30.0, 0.0, 10.0, SURF_ID='ROCK WALL' /
&OBST XB= 8.0, 9.0, 0,  30.0, 10.0, 20.0, SURF_ID='ROCK WALL' /

The back side of the rockshelter - 1m with ceiling of 11m
&OBST XB= 7.0, 8.0, 0.0,  3.0, 0.0, 11.0, SURF_ID='ROCK WALL' /
&OBST XB= 7.0, 8.0, 27.0, 30.0, 0.0, 11.0, SURF_ID='ROCK WALL' /
&OBST XB= 7.0, 8.0, 0.0,  30.0, 10.5, 20.0, SURF_ID='ROCK WALL' /

The back side of the rockshelter - 1m with ceiling of 12m
&OBST XB= 6.0, 7.0, 0.0, 2.5, 0.0, 12.0, SURF_ID='ROCK WALL' /
&OBST XB= 6.0, 7.0, 27.5, 30.0, 0.0, 12.0, SURF_ID='ROCK WALL' /
&OBST XB= 6.0, 7.0, 0.0,  30.0, 11.5, 20.0, SURF_ID='ROCK WALL' /

The back side of the rockshelter - 1m with ceiling of 13m
&OBST XB= 6.0, 4.0, 0.0,  2.0, 0.0, 13.0, SURF_ID='ROCK WALL' /
&OBST XB= 6.0, 4.0, 28.0, 30.0, 0.0, 13.0, SURF_ID='ROCK WALL' /
&OBST XB= 6.0, 4.0, 0.0,  30.0, 12.5, 20.0, SURF_ID='ROCK WALL' /

Fire

&REAC ID                 = 'WOOD'
      FYI                = 'Tewarson, SFPE Handbook, Douglas Fir'
      C                  = 1.
      H                  = 1.7
      O                  = 0.74
      N                  = 0.002
      HEAT_OF_COMBUSTION = 16400.
      SOOT_YIELD         = 0.015 /

&SURF ID='FIRE', HRRPUA=90.0, RAMP_Q='fire_b' /
&RAMP ID='fire_b', T=0.0, F=0.0 /
&RAMP ID='fire_b', T=20.0, F=0.0 /
&RAMP ID='fire_b', T=30.0, F=1.0 /
&RAMP ID='fire_b', T=2000.0, F=1.0 /
&RAMP ID='fire_b', T=2100.0, F=0.0 /

Floor I - depth, width, height
Heart 8
OBST XB= 5.0,4.5,5.0,5.5,0.0,0.5, SURF_ID = 'FIRE', COLOR='RED' /
Heart 21
&OBST XB= 8.0,7.5,6.5,7.0,0.0,0.5, SURF_ID = 'FIRE', COLOR='RED' /
Heart 2
&OBST XB= 8.5,8.0,7.0,7.5,0.0,0.5, SURF_ID = 'FIRE', COLOR='RED' /
Heart 3
&OBST XB= 8.5,8.0,8.0,8.5,0.0,0.5, SURF_ID = 'FIRE', COLOR='RED' /
Heart 6
OBST XB= 6.5,6.0,8.0,8.5,0.0,0.5, SURF_ID = 'FIRE', COLOR='RED' /
Heart 7
OBST XB= 6.5,6.0,7.5,8.0,0.0,0.5, SURF_ID = 'FIRE', COLOR='RED' /


Output

&DUMP NFRAMES=3600, DT_DEVC=10., DT_HRR=3600. /

x - 4 - 9
y - 2 - 28
z - 0 - 13

// Column 2.5
&DEVC XYZ=4.5, 2.5, 0.5, QUANTITY='DENSITY', SPEC_ID='SOOT', ID='soot_45_25_05', DEVC_ID='asp1',
FLOWRATE=0.1, DELAY=10 /
&DEVC XYZ=5.0, 2.5, 0.5, QUANTITY='DENSITY', SPEC_ID='SOOT', ID='soot_50_25_05', DEVC_ID='asp1',
FLOWRATE=0.1, DELAY=10 /
&DEVC XYZ=5.5, 2.5, 0.5, QUANTITY='DENSITY', SPEC_ID='SOOT', ID='soot_55_25_05', DEVC_ID='asp1',
FLOWRATE=0.1, DELAY=10 /
&DEVC XYZ=6.0, 2.5, 0.5, QUANTITY='DENSITY', SPEC_ID='SOOT', ID='soot_60_25_05', DEVC_ID='asp1',
FLOWRATE=0.1, DELAY=10 /
&DEVC XYZ=6.5, 2.5, 0.5, QUANTITY='DENSITY', SPEC_ID='SOOT', ID='soot_65_25_05', DEVC_ID='asp1',
FLOWRATE=0.1, DELAY=10 /
&DEVC XYZ=7.0, 2.5, 0.5, QUANTITY='DENSITY', SPEC_ID='SOOT', ID='soot_70_25_05', DEVC_ID='asp1',
FLOWRATE=0.1, DELAY=10 /
&DEVC XYZ=7.5, 2.5, 0.5, QUANTITY='DENSITY', SPEC_ID='SOOT', ID='soot_75_25_05', DEVC_ID='asp1',
FLOWRATE=0.1, DELAY=10 /
&DEVC XYZ=8.0, 2.5, 0.5, QUANTITY='DENSITY', SPEC_ID='SOOT', ID='soot_80_25_05', DEVC_ID='asp1',
FLOWRATE=0.1, DELAY=10 /
&DEVC XYZ=8.5, 2.5, 0.5, QUANTITY='DENSITY', SPEC_ID='SOOT', ID='soot_85_25_05', DEVC_ID='asp1',
FLOWRATE=0.1, DELAY=10 /

&DEVC XYZ=4.5, 2.5, 1.0, QUANTITY='DENSITY', SPEC_ID='SOOT', ID='soot_45_25_10', DEVC_ID='asp1',
FLOWRATE=0.1, DELAY=10 /
&DEVC XYZ=5.0, 2.5, 1.0, QUANTITY='DENSITY', SPEC_ID='SOOT', ID='soot_50_25_10', DEVC_ID='asp1',
FLOWRATE=0.1, DELAY=10 /
&DEVC XYZ=5.5, 2.5, 1.0, QUANTITY='DENSITY', SPEC_ID='SOOT', ID='soot_55_25_10', DEVC_ID='asp1',
FLOWRATE=0.1, DELAY=10 /
&DEVC XYZ=6.0, 2.5, 1.0, QUANTITY='DENSITY', SPEC_ID='SOOT', ID='soot_60_25_10', DEVC_ID='asp1',
FLOWRATE=0.1, DELAY=10 /
&DEVC XYZ=6.5, 2.5, 1.0, QUANTITY='DENSITY', SPEC_ID='SOOT', ID='soot_65_25_10', DEVC_ID='asp1',
FLOWRATE=0.1, DELAY=10 /
&DEVC XYZ=7.0, 2.5, 1.0, QUANTITY='DENSITY', SPEC_ID='SOOT', ID='soot_70_25_10', DEVC_ID='asp1',
FLOWRATE=0.1, DELAY=10 /
&DEVC XYZ=7.5, 2.5, 1.0, QUANTITY='DENSITY', SPEC_ID='SOOT', ID='soot_75_25_10', DEVC_ID='asp1',
FLOWRATE=0.1, DELAY=10 /
&DEVC XYZ=8.0, 2.5, 1.0, QUANTITY='DENSITY', SPEC_ID='SOOT', ID='soot_80_25_10', DEVC_ID='asp1',
FLOWRATE=0.1, DELAY=10 /
&DEVC XYZ=8.5, 2.5, 1.0, QUANTITY='DENSITY', SPEC_ID='SOOT', ID='soot_85_25_10', DEVC_ID='asp1',
FLOWRATE=0.1, DELAY=10 /

&DEVC XYZ=4.5, 2.5, 1.5, QUANTITY='DENSITY', SPEC_ID='SOOT', ID='soot_45_25_15', DEVC_ID='asp1',
FLOWRATE=0.1, DELAY=10 /
&DEVC XYZ=5.0, 2.5, 1.5, QUANTITY='DENSITY', SPEC_ID='SOOT', ID='soot_50_25_15', DEVC_ID='asp1',
FLOWRATE=0.1, DELAY=10 /
&DEVC XYZ=5.5, 2.5, 1.5, QUANTITY='DENSITY', SPEC_ID='SOOT', ID='soot_55_25_15', DEVC_ID='asp1',
FLOWRATE=0.1, DELAY=10 /
&DEVC XYZ=6.0, 2.5, 1.5, QUANTITY='DENSITY', SPEC_ID='SOOT', ID='soot_60_25_15', DEVC_ID='asp1',
FLOWRATE=0.1, DELAY=10 /
&DEVC XYZ=6.5, 2.5, 1.5, QUANTITY='DENSITY', SPEC_ID='SOOT', ID='soot_65_25_15', DEVC_ID='asp1',
FLOWRATE=0.1, DELAY=10 /
&DEVC XYZ=7.0, 2.5, 1.5, QUANTITY='DENSITY', SPEC_ID='SOOT', ID='soot_70_25_15', DEVC_ID='asp1',
FLOWRATE=0.1, DELAY=10 /
&DEVC XYZ=7.5, 2.5, 1.5, QUANTITY='DENSITY', SPEC_ID='SOOT', ID='soot_75_25_15', DEVC_ID='asp1',
FLOWRATE=0.1, DELAY=10 /
&DEVC XYZ=8.0, 2.5, 1.5, QUANTITY='DENSITY', SPEC_ID='SOOT', ID='soot_80_25_15', DEVC_ID='asp1',
FLOWRATE=0.1, DELAY=10 /
&DEVC XYZ=8.5, 2.5, 1.5, QUANTITY='DENSITY', SPEC_ID='SOOT', ID='soot_85_25_15', DEVC_ID='asp1',
FLOWRATE=0.1, DELAY=10 /

&DEVC XYZ=4.5, 2.5, 2.0, QUANTITY='DENSITY', SPEC_ID='SOOT', ID='soot_45_25_20', DEVC_ID='asp1',
FLOWRATE=0.1, DELAY=10 /
&DEVC XYZ=5.0, 2.5, 2.0, QUANTITY='DENSITY', SPEC_ID='SOOT', ID='soot_50_25_20', DEVC_ID='asp1',
FLOWRATE=0.1, DELAY=10 /
&DEVC XYZ=5.5, 2.5, 2.0, QUANTITY='DENSITY', SPEC_ID='SOOT', ID='soot_55_25_20', DEVC_ID='asp1',
FLOWRATE=0.1, DELAY=10 /
&DEVC XYZ=6.0, 2.5, 2.0, QUANTITY='DENSITY', SPEC_ID='SOOT', ID='soot_60_25_20', DEVC_ID='asp1',
FLOWRATE=0.1, DELAY=10 /
&DEVC XYZ=6.5, 2.5, 2.0, QUANTITY='DENSITY', SPEC_ID='SOOT', ID='soot_65_25_20', DEVC_ID='asp1',
FLOWRATE=0.1, DELAY=10 /
&DEVC XYZ=7.0, 2.5, 2.0, QUANTITY='DENSITY', SPEC_ID='SOOT', ID='soot_70_25_20', DEVC_ID='asp1',
FLOWRATE=0.1, DELAY=10 /
&DEVC XYZ=7.5, 2.5, 2.0, QUANTITY='DENSITY', SPEC_ID='SOOT', ID='soot_75_25_20', DEVC_ID='asp1',
FLOWRATE=0.1, DELAY=10 /
&DEVC XYZ=8.0, 2.5, 2.0, QUANTITY='DENSITY', SPEC_ID='SOOT', ID='soot_80_25_20', DEVC_ID='asp1',
FLOWRATE=0.1, DELAY=10 /
&DEVC XYZ=8.5, 2.5, 2.0, QUANTITY='DENSITY', SPEC_ID='SOOT', ID='soot_85_25_20', DEVC_ID='asp1',
FLOWRATE=0.1, DELAY=10 /

&DEVC XYZ=4.5, 2.5, 2.5, QUANTITY='DENSITY', SPEC_ID='SOOT', ID='soot_45_25_25', DEVC_ID='asp1',
FLOWRATE=0.1, DELAY=10 /
&DEVC XYZ=5.0, 2.5, 2.5, QUANTITY='DENSITY', SPEC_ID='SOOT', ID='soot_50_25_25', DEVC_ID='asp1',
FLOWRATE=0.1, DELAY=10 /
&DEVC XYZ=5.5, 2.5, 2.5, QUANTITY='DENSITY', SPEC_ID='SOOT', ID='soot_55_25_25', DEVC_ID='asp1',
FLOWRATE=0.1, DELAY=10 /
&DEVC XYZ=6.0, 2.5, 2.5, QUANTITY='DENSITY', SPEC_ID='SOOT', ID='soot_60_25_25', DEVC_ID='asp1',
FLOWRATE=0.1, DELAY=10 /
&DEVC XYZ=6.5, 2.5, 2.5, QUANTITY='DENSITY', SPEC_ID='SOOT', ID='soot_65_25_25', DEVC_ID='asp1',
FLOWRATE=0.1, DELAY=10 /
&DEVC XYZ=7.0, 2.5, 2.5, QUANTITY='DENSITY', SPEC_ID='SOOT', ID='soot_70_25_25', DEVC_ID='asp1',
FLOWRATE=0.1, DELAY=10 /
&DEVC XYZ=7.5, 2.5, 2.5, QUANTITY='DENSITY', SPEC_ID='SOOT', ID='soot_75_25_25', DEVC_ID='asp1',
FLOWRATE=0.1, DELAY=10 /
&DEVC XYZ=8.0, 2.5, 2.5, QUANTITY='DENSITY', SPEC_ID='SOOT', ID='soot_80_25_25', DEVC_ID='asp1',
FLOWRATE=0.1, DELAY=10 /
&DEVC XYZ=8.5, 2.5, 2.5, QUANTITY='DENSITY', SPEC_ID='SOOT', ID='soot_85_25_25', DEVC_ID='asp1',
FLOWRATE=0.1, DELAY=10 /

&DEVC XYZ=4.5, 2.5, 3.0, QUANTITY='DENSITY', SPEC_ID='SOOT', ID='soot_45_25_30', DEVC_ID='asp1',
FLOWRATE=0.1, DELAY=10 /
&DEVC XYZ=5.0, 2.5, 3.0, QUANTITY='DENSITY', SPEC_ID='SOOT', ID='soot_50_25_30', DEVC_ID='asp1',
FLOWRATE=0.1, DELAY=10 /
&DEVC XYZ=5.5, 2.5, 3.0, QUANTITY='DENSITY', SPEC_ID='SOOT', ID='soot_55_25_30', DEVC_ID='asp1',
FLOWRATE=0.1, DELAY=10 /
&DEVC XYZ=6.0, 2.5, 3.0, QUANTITY='DENSITY', SPEC_ID='SOOT', ID='soot_60_25_30', DEVC_ID='asp1',
FLOWRATE=0.1, DELAY=10 /
&DEVC XYZ=6.5, 2.5, 3.0, QUANTITY='DENSITY', SPEC_ID='SOOT', ID='soot_65_25_30', DEVC_ID='asp1',
FLOWRATE=0.1, DELAY=10 /
&DEVC XYZ=7.0, 2.5, 3.0, QUANTITY='DENSITY', SPEC_ID='SOOT', ID='soot_70_25_30', DEVC_ID='asp1',
FLOWRATE=0.1, DELAY=10 /
&DEVC XYZ=7.5, 2.5, 3.0, QUANTITY='DENSITY', SPEC_ID='SOOT', ID='soot_75_25_30', DEVC_ID='asp1',
FLOWRATE=0.1, DELAY=10 /
&DEVC XYZ=8.0, 2.5, 3.0, QUANTITY='DENSITY', SPEC_ID='SOOT', ID='soot_80_25_30', DEVC_ID='asp1',
FLOWRATE=0.1, DELAY=10 /
&DEVC XYZ=8.5, 2.5, 3.0, QUANTITY='DENSITY', SPEC_ID='SOOT', ID='soot_85_25_30', DEVC_ID='asp1',
FLOWRATE=0.1, DELAY=10 /

// Column 3.0
&DEVC XYZ=4.5, 3.0, 0.5, QUANTITY='DENSITY', SPEC_ID='SOOT', ID='soot_45_30_05', DEVC_ID='asp1',
FLOWRATE=0.1, DELAY=10 /
&DEVC XYZ=5.0, 3.0, 0.5, QUANTITY='DENSITY', SPEC_ID='SOOT', ID='soot_50_30_05', DEVC_ID='asp1',
FLOWRATE=0.1, DELAY=10 /
&DEVC XYZ=5.5, 3.0, 0.5, QUANTITY='DENSITY', SPEC_ID='SOOT', ID='soot_55_30_05', DEVC_ID='asp1',
FLOWRATE=0.1, DELAY=10 /
&DEVC XYZ=6.0, 3.0, 0.5, QUANTITY='DENSITY', SPEC_ID='SOOT', ID='soot_60_30_05', DEVC_ID='asp1',
FLOWRATE=0.1, DELAY=10 /
&DEVC XYZ=6.5, 3.0, 0.5, QUANTITY='DENSITY', SPEC_ID='SOOT', ID='soot_65_30_05', DEVC_ID='asp1',
FLOWRATE=0.1, DELAY=10 /
&DEVC XYZ=7.0, 3.0, 0.5, QUANTITY='DENSITY', SPEC_ID='SOOT', ID='soot_70_30_05', DEVC_ID='asp1',
FLOWRATE=0.1, DELAY=10 /
&DEVC XYZ=7.5, 3.0, 0.5, QUANTITY='DENSITY', SPEC_ID='SOOT', ID='soot_75_30_05', DEVC_ID='asp1',
FLOWRATE=0.1, DELAY=10 /
&DEVC XYZ=8.0, 3.0, 0.5, QUANTITY='DENSITY', SPEC_ID='SOOT', ID='soot_80_30_05', DEVC_ID='asp1',
FLOWRATE=0.1, DELAY=10 /
&DEVC XYZ=8.5, 3.0, 0.5, QUANTITY='DENSITY', SPEC_ID='SOOT', ID='soot_85_30_05', DEVC_ID='asp1',
FLOWRATE=0.1, DELAY=10 /

&DEVC XYZ=4.5, 3.0, 1.0, QUANTITY='DENSITY', SPEC_ID='SOOT', ID='soot_45_30_10', DEVC_ID='asp1',
FLOWRATE=0.1, DELAY=10 /
&DEVC XYZ=5.0, 3.0, 1.0, QUANTITY='DENSITY', SPEC_ID='SOOT', ID='soot_50_30_10', DEVC_ID='asp1',
FLOWRATE=0.1, DELAY=10 /
&DEVC XYZ=5.5, 3.0, 1.0, QUANTITY='DENSITY', SPEC_ID='SOOT', ID='soot_55_30_10', DEVC_ID='asp1',
FLOWRATE=0.1, DELAY=10 /
&DEVC XYZ=6.0, 3.0, 1.0, QUANTITY='DENSITY', SPEC_ID='SOOT', ID='soot_60_30_10', DEVC_ID='asp1',
FLOWRATE=0.1, DELAY=10 /
&DEVC XYZ=6.5, 3.0, 1.0, QUANTITY='DENSITY', SPEC_ID='SOOT', ID='soot_65_30_10', DEVC_ID='asp1',
FLOWRATE=0.1, DELAY=10 /
&DEVC XYZ=7.0, 3.0, 1.0, QUANTITY='DENSITY', SPEC_ID='SOOT', ID='soot_70_30_10', DEVC_ID='asp1',
FLOWRATE=0.1, DELAY=10 /
&DEVC XYZ=7.5, 3.0, 1.0, QUANTITY='DENSITY', SPEC_ID='SOOT', ID='soot_75_30_10', DEVC_ID='asp1',
FLOWRATE=0.1, DELAY=10 /
&DEVC XYZ=8.0, 3.0, 1.0, QUANTITY='DENSITY', SPEC_ID='SOOT', ID='soot_80_30_10', DEVC_ID='asp1',
FLOWRATE=0.1, DELAY=10 /
&DEVC XYZ=8.5, 3.0, 1.0, QUANTITY='DENSITY', SPEC_ID='SOOT', ID='soot_85_30_10', DEVC_ID='asp1',
FLOWRATE=0.1, DELAY=10 /

&DEVC XYZ=4.5, 3.0, 1.5, QUANTITY='DENSITY', SPEC_ID='SOOT', ID='soot_45_30_15', DEVC_ID='asp1',
FLOWRATE=0.1, DELAY=10 /
&DEVC XYZ=5.0, 3.0, 1.5, QUANTITY='DENSITY', SPEC_ID='SOOT', ID='soot_50_30_15', DEVC_ID='asp1',
FLOWRATE=0.1, DELAY=10 /
&DEVC XYZ=5.5, 3.0, 1.5, QUANTITY='DENSITY', SPEC_ID='SOOT', ID='soot_55_30_15', DEVC_ID='asp1',
FLOWRATE=0.1, DELAY=10 /
&DEVC XYZ=6.0, 3.0, 1.5, QUANTITY='DENSITY', SPEC_ID='SOOT', ID='soot_60_30_15', DEVC_ID='asp1',
FLOWRATE=0.1, DELAY=10 /
&DEVC XYZ=6.5, 3.0, 1.5, QUANTITY='DENSITY', SPEC_ID='SOOT', ID='soot_65_30_15', DEVC_ID='asp1',
FLOWRATE=0.1, DELAY=10 /
&DEVC XYZ=7.0, 3.0, 1.5, QUANTITY='DENSITY', SPEC_ID='SOOT', ID='soot_70_30_15', DEVC_ID='asp1',
FLOWRATE=0.1, DELAY=10 /
&DEVC XYZ=7.5, 3.0, 1.5, QUANTITY='DENSITY', SPEC_ID='SOOT', ID='soot_75_30_15', DEVC_ID='asp1',
FLOWRATE=0.1, DELAY=10 /
&DEVC XYZ=8.0, 3.0, 1.5, QUANTITY='DENSITY', SPEC_ID='SOOT', ID='soot_80_30_15', DEVC_ID='asp1',
FLOWRATE=0.1, DELAY=10 /
&DEVC XYZ=8.5, 3.0, 1.5, QUANTITY='DENSITY', SPEC_ID='SOOT', ID='soot_85_30_15', DEVC_ID='asp1',
FLOWRATE=0.1, DELAY=10 /

&DEVC XYZ=4.5, 3.0, 2.0, QUANTITY='DENSITY', SPEC_ID='SOOT', ID='soot_45_30_20', DEVC_ID='asp1',
FLOWRATE=0.1, DELAY=10 /
&DEVC XYZ=5.0, 3.0, 2.0, QUANTITY='DENSITY', SPEC_ID='SOOT', ID='soot_50_30_20', DEVC_ID='asp1',
FLOWRATE=0.1, DELAY=10 /
&DEVC XYZ=5.5, 3.0, 2.0, QUANTITY='DENSITY', SPEC_ID='SOOT', ID='soot_55_30_20', DEVC_ID='asp1',
FLOWRATE=0.1, DELAY=10 /
&DEVC XYZ=6.0, 3.0, 2.0, QUANTITY='DENSITY', SPEC_ID='SOOT', ID='soot_60_30_20', DEVC_ID='asp1',
FLOWRATE=0.1, DELAY=10 /
&DEVC XYZ=6.5, 3.0, 2.0, QUANTITY='DENSITY', SPEC_ID='SOOT', ID='soot_65_30_20', DEVC_ID='asp1',
FLOWRATE=0.1, DELAY=10 /
&DEVC XYZ=7.0, 3.0, 2.0, QUANTITY='DENSITY', SPEC_ID='SOOT', ID='soot_70_30_20', DEVC_ID='asp1',
FLOWRATE=0.1, DELAY=10 /
&DEVC XYZ=7.5, 3.0, 2.0, QUANTITY='DENSITY', SPEC_ID='SOOT', ID='soot_75_30_20', DEVC_ID='asp1',
FLOWRATE=0.1, DELAY=10 /
&DEVC XYZ=8.0, 3.0, 2.0, QUANTITY='DENSITY', SPEC_ID='SOOT', ID='soot_80_30_20', DEVC_ID='asp1',
FLOWRATE=0.1, DELAY=10 /
&DEVC XYZ=8.5, 3.0, 2.0, QUANTITY='DENSITY', SPEC_ID='SOOT', ID='soot_85_30_20', DEVC_ID='asp1',
FLOWRATE=0.1, DELAY=10 /

&DEVC XYZ=4.5, 3.0, 2.5, QUANTITY='DENSITY', SPEC_ID='SOOT', ID='soot_45_30_25', DEVC_ID='asp1',
FLOWRATE=0.1, DELAY=10 /
&DEVC XYZ=5.0, 3.0, 2.5, QUANTITY='DENSITY', SPEC_ID='SOOT', ID='soot_50_30_25', DEVC_ID='asp1',
FLOWRATE=0.1, DELAY=10 /
&DEVC XYZ=5.5, 3.0, 2.5, QUANTITY='DENSITY', SPEC_ID='SOOT', ID='soot_55_30_25', DEVC_ID='asp1',
FLOWRATE=0.1, DELAY=10 /
&DEVC XYZ=6.0, 3.0, 2.5, QUANTITY='DENSITY', SPEC_ID='SOOT', ID='soot_60_30_25', DEVC_ID='asp1',
FLOWRATE=0.1, DELAY=10 /
&DEVC XYZ=6.5, 3.0, 2.5, QUANTITY='DENSITY', SPEC_ID='SOOT', ID='soot_65_30_25', DEVC_ID='asp1',
FLOWRATE=0.1, DELAY=10 /
&DEVC XYZ=7.0, 3.0, 2.5, QUANTITY='DENSITY', SPEC_ID='SOOT', ID='soot_70_30_25', DEVC_ID='asp1',
FLOWRATE=0.1, DELAY=10 /
&DEVC XYZ=7.5, 3.0, 2.5, QUANTITY='DENSITY', SPEC_ID='SOOT', ID='soot_75_30_25', DEVC_ID='asp1',
FLOWRATE=0.1, DELAY=10 /
&DEVC XYZ=8.0, 3.0, 2.5, QUANTITY='DENSITY', SPEC_ID='SOOT', ID='soot_80_30_25', DEVC_ID='asp1',
FLOWRATE=0.1, DELAY=10 /
&DEVC XYZ=8.5, 3.0, 2.5, QUANTITY='DENSITY', SPEC_ID='SOOT', ID='soot_85_30_25', DEVC_ID='asp1',
FLOWRATE=0.1, DELAY=10 /

&DEVC XYZ=4.5, 3.0, 3.0, QUANTITY='DENSITY', SPEC_ID='SOOT', ID='soot_45_30_30', DEVC_ID='asp1',
FLOWRATE=0.1, DELAY=10 /
&DEVC XYZ=5.0, 3.0, 3.0, QUANTITY='DENSITY', SPEC_ID='SOOT', ID='soot_50_30_30', DEVC_ID='asp1',
FLOWRATE=0.1, DELAY=10 /
&DEVC XYZ=5.5, 3.0, 3.0, QUANTITY='DENSITY', SPEC_ID='SOOT', ID='soot_55_30_30', DEVC_ID='asp1',
FLOWRATE=0.1, DELAY=10 /
&DEVC XYZ=6.0, 3.0, 3.0, QUANTITY='DENSITY', SPEC_ID='SOOT', ID='soot_60_30_30', DEVC_ID='asp1',
FLOWRATE=0.1, DELAY=10 /
&DEVC XYZ=6.5, 3.0, 3.0, QUANTITY='DENSITY', SPEC_ID='SOOT', ID='soot_65_30_30', DEVC_ID='asp1',
FLOWRATE=0.1, DELAY=10 /
&DEVC XYZ=7.0, 3.0, 3.0, QUANTITY='DENSITY', SPEC_ID='SOOT', ID='soot_70_30_30', DEVC_ID='asp1',
FLOWRATE=0.1, DELAY=10 /
&DEVC XYZ=7.5, 3.0, 3.0, QUANTITY='DENSITY', SPEC_ID='SOOT', ID='soot_75_30_30', DEVC_ID='asp1',
FLOWRATE=0.1, DELAY=10 /
&DEVC XYZ=8.0, 3.0, 3.0, QUANTITY='DENSITY', SPEC_ID='SOOT', ID='soot_80_30_30', DEVC_ID='asp1',
FLOWRATE=0.1, DELAY=10 /
&DEVC XYZ=8.5, 3.0, 3.0, QUANTITY='DENSITY', SPEC_ID='SOOT', ID='soot_85_30_30', DEVC_ID='asp1',
FLOWRATE=0.1, DELAY=10 /

// Column 3.5
&DEVC XYZ=4.5, 3.5, 0.5, QUANTITY='DENSITY', SPEC_ID='SOOT', ID='soot_45_35_05', DEVC_ID='asp1',
FLOWRATE=0.1, DELAY=10 /
&DEVC XYZ=5.0, 3.5, 0.5, QUANTITY='DENSITY', SPEC_ID='SOOT', ID='soot_50_35_05', DEVC_ID='asp1',
FLOWRATE=0.1, DELAY=10 /
&DEVC XYZ=5.5, 3.5, 0.5, QUANTITY='DENSITY', SPEC_ID='SOOT', ID='soot_55_35_05', DEVC_ID='asp1',
FLOWRATE=0.1, DELAY=10 /
&DEVC XYZ=6.0, 3.5, 0.5, QUANTITY='DENSITY', SPEC_ID='SOOT', ID='soot_60_35_05', DEVC_ID='asp1',
FLOWRATE=0.1, DELAY=10 /
&DEVC XYZ=6.5, 3.5, 0.5, QUANTITY='DENSITY', SPEC_ID='SOOT', ID='soot_65_35_05', DEVC_ID='asp1',
FLOWRATE=0.1, DELAY=10 /
&DEVC XYZ=7.0, 3.5, 0.5, QUANTITY='DENSITY', SPEC_ID='SOOT', ID='soot_70_35_05', DEVC_ID='asp1',
FLOWRATE=0.1, DELAY=10 /
&DEVC XYZ=7.5, 3.5, 0.5, QUANTITY='DENSITY', SPEC_ID='SOOT', ID='soot_75_35_05', DEVC_ID='asp1',
FLOWRATE=0.1, DELAY=10 /
&DEVC XYZ=8.0, 3.5, 0.5, QUANTITY='DENSITY', SPEC_ID='SOOT', ID='soot_80_35_05', DEVC_ID='asp1',
FLOWRATE=0.1, DELAY=10 /
&DEVC XYZ=8.5, 3.5, 0.5, QUANTITY='DENSITY', SPEC_ID='SOOT', ID='soot_85_35_05', DEVC_ID='asp1',
FLOWRATE=0.1, DELAY=10 /

&DEVC XYZ=4.5, 3.5, 1.0, QUANTITY='DENSITY', SPEC_ID='SOOT', ID='soot_45_35_10', DEVC_ID='asp1',
FLOWRATE=0.1, DELAY=10 /
&DEVC XYZ=5.0, 3.5, 1.0, QUANTITY='DENSITY', SPEC_ID='SOOT', ID='soot_50_35_10', DEVC_ID='asp1',
FLOWRATE=0.1, DELAY=10 /
&DEVC XYZ=5.5, 3.5, 1.0, QUANTITY='DENSITY', SPEC_ID='SOOT', ID='soot_55_35_10', DEVC_ID='asp1',
FLOWRATE=0.1, DELAY=10 /
&DEVC XYZ=6.0, 3.5, 1.0, QUANTITY='DENSITY', SPEC_ID='SOOT', ID='soot_60_35_10', DEVC_ID='asp1',
FLOWRATE=0.1, DELAY=10 /
&DEVC XYZ=6.5, 3.5, 1.0, QUANTITY='DENSITY', SPEC_ID='SOOT', ID='soot_65_35_10', DEVC_ID='asp1',
FLOWRATE=0.1, DELAY=10 /
&DEVC XYZ=7.0, 3.5, 1.0, QUANTITY='DENSITY', SPEC_ID='SOOT', ID='soot_70_35_10', DEVC_ID='asp1',
FLOWRATE=0.1, DELAY=10 /
&DEVC XYZ=7.5, 3.5, 1.0, QUANTITY='DENSITY', SPEC_ID='SOOT', ID='soot_75_35_10', DEVC_ID='asp1',
FLOWRATE=0.1, DELAY=10 /
&DEVC XYZ=8.0, 3.5, 1.0, QUANTITY='DENSITY', SPEC_ID='SOOT', ID='soot_80_35_10', DEVC_ID='asp1',
FLOWRATE=0.1, DELAY=10 /
&DEVC XYZ=8.5, 3.5, 1.0, QUANTITY='DENSITY', SPEC_ID='SOOT', ID='soot_85_35_10', DEVC_ID='asp1',
FLOWRATE=0.1, DELAY=10 /

&DEVC XYZ=4.5, 3.5, 1.5, QUANTITY='DENSITY', SPEC_ID='SOOT', ID='soot_45_35_15', DEVC_ID='asp1',
FLOWRATE=0.1, DELAY=10 /
&DEVC XYZ=5.0, 3.5, 1.5, QUANTITY='DENSITY', SPEC_ID='SOOT', ID='soot_50_35_15', DEVC_ID='asp1',
FLOWRATE=0.1, DELAY=10 /
&DEVC XYZ=5.5, 3.5, 1.5, QUANTITY='DENSITY', SPEC_ID='SOOT', ID='soot_55_35_15', DEVC_ID='asp1',
FLOWRATE=0.1, DELAY=10 /
&DEVC XYZ=6.0, 3.5, 1.5, QUANTITY='DENSITY', SPEC_ID='SOOT', ID='soot_60_35_15', DEVC_ID='asp1',
FLOWRATE=0.1, DELAY=10 /
&DEVC XYZ=6.5, 3.5, 1.5, QUANTITY='DENSITY', SPEC_ID='SOOT', ID='soot_65_35_15', DEVC_ID='asp1',
FLOWRATE=0.1, DELAY=10 /
&DEVC XYZ=7.0, 3.5, 1.5, QUANTITY='DENSITY', SPEC_ID='SOOT', ID='soot_70_35_15', DEVC_ID='asp1',
FLOWRATE=0.1, DELAY=10 /
&DEVC XYZ=7.5, 3.5, 1.5, QUANTITY='DENSITY', SPEC_ID='SOOT', ID='soot_75_35_15', DEVC_ID='asp1',
FLOWRATE=0.1, DELAY=10 /
&DEVC XYZ=8.0, 3.5, 1.5, QUANTITY='DENSITY', SPEC_ID='SOOT', ID='soot_80_35_15', DEVC_ID='asp1',
FLOWRATE=0.1, DELAY=10 /
&DEVC XYZ=8.5, 3.5, 1.5, QUANTITY='DENSITY', SPEC_ID='SOOT', ID='soot_85_35_15', DEVC_ID='asp1',
FLOWRATE=0.1, DELAY=10 /

&DEVC XYZ=4.5, 3.5, 2.0, QUANTITY='DENSITY', SPEC_ID='SOOT', ID='soot_45_35_20', DEVC_ID='asp1',
FLOWRATE=0.1, DELAY=10 /
&DEVC XYZ=5.0, 3.5, 2.0, QUANTITY='DENSITY', SPEC_ID='SOOT', ID='soot_50_35_20', DEVC_ID='asp1',
FLOWRATE=0.1, DELAY=10 /
&DEVC XYZ=5.5, 3.5, 2.0, QUANTITY='DENSITY', SPEC_ID='SOOT', ID='soot_55_35_20', DEVC_ID='asp1',
FLOWRATE=0.1, DELAY=10 /
&DEVC XYZ=6.0, 3.5, 2.0, QUANTITY='DENSITY', SPEC_ID='SOOT', ID='soot_60_35_20', DEVC_ID='asp1',
FLOWRATE=0.1, DELAY=10 /
&DEVC XYZ=6.5, 3.5, 2.0, QUANTITY='DENSITY', SPEC_ID='SOOT', ID='soot_65_35_20', DEVC_ID='asp1',
FLOWRATE=0.1, DELAY=10 /
&DEVC XYZ=7.0, 3.5, 2.0, QUANTITY='DENSITY', SPEC_ID='SOOT', ID='soot_70_35_20', DEVC_ID='asp1',
FLOWRATE=0.1, DELAY=10 /
&DEVC XYZ=7.5, 3.5, 2.0, QUANTITY='DENSITY', SPEC_ID='SOOT', ID='soot_75_35_20', DEVC_ID='asp1',
FLOWRATE=0.1, DELAY=10 /
&DEVC XYZ=8.0, 3.5, 2.0, QUANTITY='DENSITY', SPEC_ID='SOOT', ID='soot_80_35_20', DEVC_ID='asp1',
FLOWRATE=0.1, DELAY=10 /
&DEVC XYZ=8.5, 3.5, 2.0, QUANTITY='DENSITY', SPEC_ID='SOOT', ID='soot_85_35_20', DEVC_ID='asp1',
FLOWRATE=0.1, DELAY=10 /

&DEVC XYZ=4.5, 3.5, 2.5, QUANTITY='DENSITY', SPEC_ID='SOOT', ID='soot_45_35_25', DEVC_ID='asp1',
FLOWRATE=0.1, DELAY=10 /
&DEVC XYZ=5.0, 3.5, 2.5, QUANTITY='DENSITY', SPEC_ID='SOOT', ID='soot_50_35_25', DEVC_ID='asp1',
FLOWRATE=0.1, DELAY=10 /
&DEVC XYZ=5.5, 3.5, 2.5, QUANTITY='DENSITY', SPEC_ID='SOOT', ID='soot_55_35_25', DEVC_ID='asp1',
FLOWRATE=0.1, DELAY=10 /
&DEVC XYZ=6.0, 3.5, 2.5, QUANTITY='DENSITY', SPEC_ID='SOOT', ID='soot_60_35_25', DEVC_ID='asp1',
FLOWRATE=0.1, DELAY=10 /
&DEVC XYZ=6.5, 3.5, 2.5, QUANTITY='DENSITY', SPEC_ID='SOOT', ID='soot_65_35_25', DEVC_ID='asp1',
FLOWRATE=0.1, DELAY=10 /
&DEVC XYZ=7.0, 3.5, 2.5, QUANTITY='DENSITY', SPEC_ID='SOOT', ID='soot_70_35_25', DEVC_ID='asp1',
FLOWRATE=0.1, DELAY=10 /
&DEVC XYZ=7.5, 3.5, 2.5, QUANTITY='DENSITY', SPEC_ID='SOOT', ID='soot_75_35_25', DEVC_ID='asp1',
FLOWRATE=0.1, DELAY=10 /
&DEVC XYZ=8.0, 3.5, 2.5, QUANTITY='DENSITY', SPEC_ID='SOOT', ID='soot_80_35_25', DEVC_ID='asp1',
FLOWRATE=0.1, DELAY=10 /
&DEVC XYZ=8.5, 3.5, 2.5, QUANTITY='DENSITY', SPEC_ID='SOOT', ID='soot_85_35_25', DEVC_ID='asp1',
FLOWRATE=0.1, DELAY=10 /

&DEVC XYZ=4.5, 3.5, 3.0, QUANTITY='DENSITY', SPEC_ID='SOOT', ID='soot_45_35_30', DEVC_ID='asp1',
FLOWRATE=0.1, DELAY=10 /
&DEVC XYZ=5.0, 3.5, 3.0, QUANTITY='DENSITY', SPEC_ID='SOOT', ID='soot_50_35_30', DEVC_ID='asp1',
FLOWRATE=0.1, DELAY=10 /
&DEVC XYZ=5.5, 3.5, 3.0, QUANTITY='DENSITY', SPEC_ID='SOOT', ID='soot_55_35_30', DEVC_ID='asp1',
FLOWRATE=0.1, DELAY=10 /
&DEVC XYZ=6.0, 3.5, 3.0, QUANTITY='DENSITY', SPEC_ID='SOOT', ID='soot_60_35_30', DEVC_ID='asp1',
FLOWRATE=0.1, DELAY=10 /
&DEVC XYZ=6.5, 3.5, 3.0, QUANTITY='DENSITY', SPEC_ID='SOOT', ID='soot_65_35_30', DEVC_ID='asp1',
FLOWRATE=0.1, DELAY=10 /
&DEVC XYZ=7.0, 3.5, 3.0, QUANTITY='DENSITY', SPEC_ID='SOOT', ID='soot_70_35_30', DEVC_ID='asp1',
FLOWRATE=0.1, DELAY=10 /
&DEVC XYZ=7.5, 3.5, 3.0, QUANTITY='DENSITY', SPEC_ID='SOOT', ID='soot_75_35_30', DEVC_ID='asp1',
FLOWRATE=0.1, DELAY=10 /
&DEVC XYZ=8.0, 3.5, 3.0, QUANTITY='DENSITY', SPEC_ID='SOOT', ID='soot_80_35_30', DEVC_ID='asp1',
FLOWRATE=0.1, DELAY=10 /
&DEVC XYZ=8.5, 3.5, 3.0, QUANTITY='DENSITY', SPEC_ID='SOOT', ID='soot_85_35_30', DEVC_ID='asp1',
FLOWRATE=0.1, DELAY=10 /

// Column 4.0
&DEVC XYZ=4.5, 4.0, 0.5, QUANTITY='DENSITY', SPEC_ID='SOOT', ID='soot_45_40_05', DEVC_ID='asp1',
FLOWRATE=0.1, DELAY=10 /
&DEVC XYZ=5.0, 4.0, 0.5, QUANTITY='DENSITY', SPEC_ID='SOOT', ID='soot_50_40_05', DEVC_ID='asp1',
FLOWRATE=0.1, DELAY=10 /
&DEVC XYZ=5.5, 4.0, 0.5, QUANTITY='DENSITY', SPEC_ID='SOOT', ID='soot_55_40_05', DEVC_ID='asp1',
FLOWRATE=0.1, DELAY=10 /
&DEVC XYZ=6.0, 4.0, 0.5, QUANTITY='DENSITY', SPEC_ID='SOOT', ID='soot_60_40_05', DEVC_ID='asp1',
FLOWRATE=0.1, DELAY=10 /
&DEVC XYZ=6.5, 4.0, 0.5, QUANTITY='DENSITY', SPEC_ID='SOOT', ID='soot_65_40_05', DEVC_ID='asp1',
FLOWRATE=0.1, DELAY=10 /
&DEVC XYZ=7.0, 4.0, 0.5, QUANTITY='DENSITY', SPEC_ID='SOOT', ID='soot_70_40_05', DEVC_ID='asp1',
FLOWRATE=0.1, DELAY=10 /
&DEVC XYZ=7.5, 4.0, 0.5, QUANTITY='DENSITY', SPEC_ID='SOOT', ID='soot_75_40_05', DEVC_ID='asp1',
FLOWRATE=0.1, DELAY=10 /
&DEVC XYZ=8.0, 4.0, 0.5, QUANTITY='DENSITY', SPEC_ID='SOOT', ID='soot_80_40_05', DEVC_ID='asp1',
FLOWRATE=0.1, DELAY=10 /
&DEVC XYZ=8.5, 4.0, 0.5, QUANTITY='DENSITY', SPEC_ID='SOOT', ID='soot_85_40_05', DEVC_ID='asp1',
FLOWRATE=0.1, DELAY=10 /

&DEVC XYZ=4.5, 4.0, 1.0, QUANTITY='DENSITY', SPEC_ID='SOOT', ID='soot_45_40_10', DEVC_ID='asp1',
FLOWRATE=0.1, DELAY=10 /
&DEVC XYZ=5.0, 4.0, 1.0, QUANTITY='DENSITY', SPEC_ID='SOOT', ID='soot_50_40_10', DEVC_ID='asp1',
FLOWRATE=0.1, DELAY=10 /
&DEVC XYZ=5.5, 4.0, 1.0, QUANTITY='DENSITY', SPEC_ID='SOOT', ID='soot_55_40_10', DEVC_ID='asp1',
FLOWRATE=0.1, DELAY=10 /
&DEVC XYZ=6.0, 4.0, 1.0, QUANTITY='DENSITY', SPEC_ID='SOOT', ID='soot_60_40_10', DEVC_ID='asp1',
FLOWRATE=0.1, DELAY=10 /
&DEVC XYZ=6.5, 4.0, 1.0, QUANTITY='DENSITY', SPEC_ID='SOOT', ID='soot_65_40_10', DEVC_ID='asp1',
FLOWRATE=0.1, DELAY=10 /
&DEVC XYZ=7.0, 4.0, 1.0, QUANTITY='DENSITY', SPEC_ID='SOOT', ID='soot_70_40_10', DEVC_ID='asp1',
FLOWRATE=0.1, DELAY=10 /
&DEVC XYZ=7.5, 4.0, 1.0, QUANTITY='DENSITY', SPEC_ID='SOOT', ID='soot_75_40_10', DEVC_ID='asp1',
FLOWRATE=0.1, DELAY=10 /
&DEVC XYZ=8.0, 4.0, 1.0, QUANTITY='DENSITY', SPEC_ID='SOOT', ID='soot_80_40_10', DEVC_ID='asp1',
FLOWRATE=0.1, DELAY=10 /
&DEVC XYZ=8.5, 4.0, 1.0, QUANTITY='DENSITY', SPEC_ID='SOOT', ID='soot_85_40_10', DEVC_ID='asp1',
FLOWRATE=0.1, DELAY=10 /

&DEVC XYZ=4.5, 4.0, 1.5, QUANTITY='DENSITY', SPEC_ID='SOOT', ID='soot_45_40_15', DEVC_ID='asp1',
FLOWRATE=0.1, DELAY=10 /
&DEVC XYZ=5.0, 4.0, 1.5, QUANTITY='DENSITY', SPEC_ID='SOOT', ID='soot_50_40_15', DEVC_ID='asp1',
FLOWRATE=0.1, DELAY=10 /
&DEVC XYZ=5.5, 4.0, 1.5, QUANTITY='DENSITY', SPEC_ID='SOOT', ID='soot_55_40_15', DEVC_ID='asp1',
FLOWRATE=0.1, DELAY=10 /
&DEVC XYZ=6.0, 4.0, 1.5, QUANTITY='DENSITY', SPEC_ID='SOOT', ID='soot_60_40_15', DEVC_ID='asp1',
FLOWRATE=0.1, DELAY=10 /
&DEVC XYZ=6.5, 4.0, 1.5, QUANTITY='DENSITY', SPEC_ID='SOOT', ID='soot_65_40_15', DEVC_ID='asp1',
FLOWRATE=0.1, DELAY=10 /
&DEVC XYZ=7.0, 4.0, 1.5, QUANTITY='DENSITY', SPEC_ID='SOOT', ID='soot_70_40_15', DEVC_ID='asp1',
FLOWRATE=0.1, DELAY=10 /
&DEVC XYZ=7.5, 4.0, 1.5, QUANTITY='DENSITY', SPEC_ID='SOOT', ID='soot_75_40_15', DEVC_ID='asp1',
FLOWRATE=0.1, DELAY=10 /
&DEVC XYZ=8.0, 4.0, 1.5, QUANTITY='DENSITY', SPEC_ID='SOOT', ID='soot_80_40_15', DEVC_ID='asp1',
FLOWRATE=0.1, DELAY=10 /
&DEVC XYZ=8.5, 4.0, 1.5, QUANTITY='DENSITY', SPEC_ID='SOOT', ID='soot_85_40_15', DEVC_ID='asp1',
FLOWRATE=0.1, DELAY=10 /

&DEVC XYZ=4.5, 4.0, 2.0, QUANTITY='DENSITY', SPEC_ID='SOOT', ID='soot_45_40_20', DEVC_ID='asp1',
FLOWRATE=0.1, DELAY=10 /
&DEVC XYZ=5.0, 4.0, 2.0, QUANTITY='DENSITY', SPEC_ID='SOOT', ID='soot_50_40_20', DEVC_ID='asp1',
FLOWRATE=0.1, DELAY=10 /
&DEVC XYZ=5.5, 4.0, 2.0, QUANTITY='DENSITY', SPEC_ID='SOOT', ID='soot_55_40_20', DEVC_ID='asp1',
FLOWRATE=0.1, DELAY=10 /
&DEVC XYZ=6.0, 4.0, 2.0, QUANTITY='DENSITY', SPEC_ID='SOOT', ID='soot_60_40_20', DEVC_ID='asp1',
FLOWRATE=0.1, DELAY=10 /
&DEVC XYZ=6.5, 4.0, 2.0, QUANTITY='DENSITY', SPEC_ID='SOOT', ID='soot_65_40_20', DEVC_ID='asp1',
FLOWRATE=0.1, DELAY=10 /
&DEVC XYZ=7.0, 4.0, 2.0, QUANTITY='DENSITY', SPEC_ID='SOOT', ID='soot_70_40_20', DEVC_ID='asp1',
FLOWRATE=0.1, DELAY=10 /
&DEVC XYZ=7.5, 4.0, 2.0, QUANTITY='DENSITY', SPEC_ID='SOOT', ID='soot_75_40_20', DEVC_ID='asp1',
FLOWRATE=0.1, DELAY=10 /
&DEVC XYZ=8.0, 4.0, 2.0, QUANTITY='DENSITY', SPEC_ID='SOOT', ID='soot_80_40_20', DEVC_ID='asp1',
FLOWRATE=0.1, DELAY=10 /
&DEVC XYZ=8.5, 4.0, 2.0, QUANTITY='DENSITY', SPEC_ID='SOOT', ID='soot_85_40_20', DEVC_ID='asp1',
FLOWRATE=0.1, DELAY=10 /

&DEVC XYZ=4.5, 4.0, 2.5, QUANTITY='DENSITY', SPEC_ID='SOOT', ID='soot_45_40_25', DEVC_ID='asp1',
FLOWRATE=0.1, DELAY=10 /
&DEVC XYZ=5.0, 4.0, 2.5, QUANTITY='DENSITY', SPEC_ID='SOOT', ID='soot_50_40_25', DEVC_ID='asp1',
FLOWRATE=0.1, DELAY=10 /
&DEVC XYZ=5.5, 4.0, 2.5, QUANTITY='DENSITY', SPEC_ID='SOOT', ID='soot_55_40_25', DEVC_ID='asp1',
FLOWRATE=0.1, DELAY=10 /
&DEVC XYZ=6.0, 4.0, 2.5, QUANTITY='DENSITY', SPEC_ID='SOOT', ID='soot_60_40_25', DEVC_ID='asp1',
FLOWRATE=0.1, DELAY=10 /
&DEVC XYZ=6.5, 4.0, 2.5, QUANTITY='DENSITY', SPEC_ID='SOOT', ID='soot_65_40_25', DEVC_ID='asp1',
FLOWRATE=0.1, DELAY=10 /
&DEVC XYZ=7.0, 4.0, 2.5, QUANTITY='DENSITY', SPEC_ID='SOOT', ID='soot_70_40_25', DEVC_ID='asp1',
FLOWRATE=0.1, DELAY=10 /
&DEVC XYZ=7.5, 4.0, 2.5, QUANTITY='DENSITY', SPEC_ID='SOOT', ID='soot_75_40_25', DEVC_ID='asp1',
FLOWRATE=0.1, DELAY=10 /
&DEVC XYZ=8.0, 4.0, 2.5, QUANTITY='DENSITY', SPEC_ID='SOOT', ID='soot_80_40_25', DEVC_ID='asp1',
FLOWRATE=0.1, DELAY=10 /
&DEVC XYZ=8.5, 4.0, 2.5, QUANTITY='DENSITY', SPEC_ID='SOOT', ID='soot_85_40_25', DEVC_ID='asp1',
FLOWRATE=0.1, DELAY=10 /

&DEVC XYZ=4.5, 4.0, 3.0, QUANTITY='DENSITY', SPEC_ID='SOOT', ID='soot_45_40_30', DEVC_ID='asp1',
FLOWRATE=0.1, DELAY=10 /
&DEVC XYZ=5.0, 4.0, 3.0, QUANTITY='DENSITY', SPEC_ID='SOOT', ID='soot_50_40_30', DEVC_ID='asp1',
FLOWRATE=0.1, DELAY=10 /
&DEVC XYZ=5.5, 4.0, 3.0, QUANTITY='DENSITY', SPEC_ID='SOOT', ID='soot_55_40_30', DEVC_ID='asp1',
FLOWRATE=0.1, DELAY=10 /
&DEVC XYZ=6.0, 4.0, 3.0, QUANTITY='DENSITY', SPEC_ID='SOOT', ID='soot_60_40_30', DEVC_ID='asp1',
FLOWRATE=0.1, DELAY=10 /
&DEVC XYZ=6.5, 4.0, 3.0, QUANTITY='DENSITY', SPEC_ID='SOOT', ID='soot_65_40_30', DEVC_ID='asp1',
FLOWRATE=0.1, DELAY=10 /
&DEVC XYZ=7.0, 4.0, 3.0, QUANTITY='DENSITY', SPEC_ID='SOOT', ID='soot_70_40_30', DEVC_ID='asp1',
FLOWRATE=0.1, DELAY=10 /
&DEVC XYZ=7.5, 4.0, 3.0, QUANTITY='DENSITY', SPEC_ID='SOOT', ID='soot_75_40_30', DEVC_ID='asp1',
FLOWRATE=0.1, DELAY=10 /
&DEVC XYZ=8.0, 4.0, 3.0, QUANTITY='DENSITY', SPEC_ID='SOOT', ID='soot_80_40_30', DEVC_ID='asp1',
FLOWRATE=0.1, DELAY=10 /
&DEVC XYZ=8.5, 4.0, 3.0, QUANTITY='DENSITY', SPEC_ID='SOOT', ID='soot_85_40_30', DEVC_ID='asp1',
FLOWRATE=0.1, DELAY=10 /

// Column 4.5
&DEVC XYZ=4.5, 4.5, 0.5, QUANTITY='DENSITY', SPEC_ID='SOOT', ID='soot_45_45_05', DEVC_ID='asp1',
FLOWRATE=0.1, DELAY=10 /
&DEVC XYZ=5.0, 4.5, 0.5, QUANTITY='DENSITY', SPEC_ID='SOOT', ID='soot_50_45_05', DEVC_ID='asp1',
FLOWRATE=0.1, DELAY=10 /
&DEVC XYZ=5.5, 4.5, 0.5, QUANTITY='DENSITY', SPEC_ID='SOOT', ID='soot_55_45_05', DEVC_ID='asp1',